Version 4
SHEET 1 1924 680
WIRE 544 -416 432 -416
WIRE 256 -400 112 -400
WIRE 992 -384 832 -384
WIRE 112 -336 112 -400
WIRE 256 -336 256 -400
WIRE 432 -336 432 -416
WIRE 544 -336 544 -416
WIRE 832 -336 832 -384
WIRE 992 -336 992 -384
WIRE 720 -272 608 -272
WIRE 1248 -272 1136 -272
WIRE 608 -240 608 -272
WIRE 720 -240 720 -272
WIRE 992 -224 992 -256
WIRE 1136 -224 1136 -272
WIRE 1248 -224 1248 -272
WIRE 256 -208 256 -256
WIRE 432 -208 432 -256
WIRE 608 -96 608 -160
WIRE 608 -96 512 -96
WIRE 1136 -96 1136 -144
WIRE 512 -80 512 -96
WIRE 992 -80 992 -144
WIRE 1104 -80 992 -80
WIRE 256 -64 256 -128
WIRE 432 -64 432 -128
WIRE 432 -64 256 -64
WIRE 480 -64 432 -64
WIRE 1360 -64 1168 -64
WIRE 1488 -64 1424 -64
WIRE 1712 -64 1568 -64
WIRE 1904 -64 1712 -64
WIRE 672 -48 544 -48
WIRE 848 -48 736 -48
WIRE 1104 -48 848 -48
WIRE 480 -32 336 -32
WIRE 1712 0 1712 -64
WIRE 1904 0 1904 -64
WIRE 208 16 16 16
WIRE 224 16 208 16
WIRE 336 16 336 -32
WIRE 336 16 288 16
WIRE 432 16 432 -64
WIRE 736 16 736 -48
WIRE 848 16 848 -48
WIRE 992 16 992 -80
WIRE 512 32 512 -16
WIRE 608 32 512 32
WIRE 1136 32 1136 -32
WIRE 608 64 608 32
WIRE 16 128 16 16
WIRE 208 128 208 16
WIRE 336 160 336 96
WIRE 1136 160 1136 112
WIRE 608 176 608 144
WIRE 736 176 736 96
WIRE 848 176 848 96
WIRE 1712 176 1712 64
WIRE 1904 176 1904 80
WIRE 16 320 16 208
WIRE 208 320 208 208
WIRE 208 320 16 320
WIRE 336 320 336 240
WIRE 336 320 208 320
WIRE 432 320 432 96
WIRE 432 320 336 320
WIRE 736 320 736 240
WIRE 736 320 432 320
WIRE 848 320 848 240
WIRE 848 320 736 320
WIRE 992 320 992 96
WIRE 992 320 848 320
WIRE 208 368 208 320
FLAG 1712 176 0
FLAG 1904 176 0
FLAG 208 368 0
FLAG 544 -336 0
FLAG 112 -336 0
FLAG 832 -336 0
FLAG 1248 -224 0
FLAG 1136 160 0
FLAG 608 176 0
FLAG 720 -240 0
SYMBOL voltage 16 112 R0
SYMATTR InstName V1
SYMATTR Value 12
SYMBOL res 320 0 R0
SYMATTR InstName R1
SYMATTR Value 40
SYMBOL res 192 112 R0
SYMATTR InstName R2
SYMATTR Value 100k
SYMBOL res 240 -224 R0
SYMATTR InstName R3
SYMATTR Value 5k
SYMBOL res 416 -224 R0
SYMATTR InstName R4
SYMATTR Value 35k
SYMBOL res 416 0 R0
SYMATTR InstName R5
SYMATTR Value 1k
SYMBOL res 720 0 R0
SYMATTR InstName R6
SYMATTR Value 1.5k
SYMBOL res 832 0 R0
SYMATTR InstName R7
SYMATTR Value 5k
SYMBOL res 976 -240 R0
SYMATTR InstName R8
SYMATTR Value 2k
SYMBOL res 976 0 R0
SYMATTR InstName R9
SYMATTR Value 1k
SYMBOL res 1584 -80 R90
WINDOW 0 0 56 VBottom 2
WINDOW 3 32 56 VTop 2
SYMATTR InstName R10
SYMATTR Value 1.5k
SYMBOL res 1920 96 R180
WINDOW 0 36 76 Left 2
WINDOW 3 36 40 Left 2
SYMATTR InstName R11
SYMATTR Value 200
SYMBOL ind 320 144 R0
SYMATTR InstName L1
SYMATTR Value 20m
SYMBOL cap 288 0 R90
WINDOW 0 0 32 VBottom 2
WINDOW 3 32 32 VTop 2
SYMATTR InstName C1
SYMATTR Value 680n
SYMBOL cap 736 -64 R90
WINDOW 0 0 32 VBottom 2
WINDOW 3 32 32 VTop 2
SYMATTR InstName C2
SYMATTR Value 10n
SYMBOL cap 1728 64 R180
WINDOW 0 24 56 Left 2
WINDOW 3 24 8 Left 2
SYMATTR InstName C3
SYMATTR Value 1µ
SYMBOL diode 752 240 R180
WINDOW 0 24 64 Left 2
WINDOW 3 24 0 Left 2
SYMATTR InstName D1
SYMATTR Value 1N4148
SYMBOL diode 832 176 R0
SYMATTR InstName D2
SYMATTR Value 1N4148
SYMBOL diode 1360 -48 R270
WINDOW 0 32 32 VTop 2
WINDOW 3 0 32 VBottom 2
SYMATTR InstName D3
SYMATTR Value 1N4148
SYMBOL OpAmps\\ADA4000-2 512 -112 R0
SYMATTR InstName U1
SYMBOL OpAmps\\ADA4000-2 1136 -128 R0
SYMATTR InstName U2
SYMBOL voltage 256 -240 R180
WINDOW 0 24 96 Left 2
WINDOW 3 24 16 Left 2
SYMATTR InstName V2
SYMATTR Value 12
SYMBOL voltage 432 -240 R180
WINDOW 0 24 96 Left 2
WINDOW 3 24 16 Left 2
SYMATTR InstName V3
SYMATTR Value 12
SYMBOL voltage 992 -240 R180
WINDOW 0 24 96 Left 2
WINDOW 3 24 16 Left 2
SYMATTR InstName V4
SYMATTR Value 12
SYMBOL voltage 1136 -128 R180
WINDOW 0 24 96 Left 2
WINDOW 3 24 16 Left 2
SYMATTR InstName V5
SYMATTR Value 12
SYMBOL voltage 1136 128 R180
WINDOW 0 24 96 Left 2
WINDOW 3 24 16 Left 2
SYMATTR InstName V6
SYMATTR Value 12
SYMBOL voltage 608 -144 R180
WINDOW 0 24 96 Left 2
WINDOW 3 24 16 Left 2
SYMATTR InstName V7
SYMATTR Value 12
SYMBOL voltage 608 160 R180
WINDOW 0 24 96 Left 2
WINDOW 3 24 16 Left 2
SYMATTR InstName V8
SYMATTR Value 12
TEXT -18 392 Left 2 !.op
